ASxxxx Assembler V02.00 + NoICE + SDCC mods  (Zilog Z80 / Hitachi HD64180), page 1.
Hexadecimal [16-Bits]



                              1 ;; File 'img/screenhistory_z.s' generated using cpct_pack
                              2 ;; Compresor used:   zx7b
                              3 ;; Files compressed: [ 'src/sprites/sHistory.bin' ]
                              4 ;; Uncompressed:     16384 bytes
                              5 ;; Compressed:       1477 bytes
                              6 ;; Space saved:      14907 bytes
                              7 ;;
                              8 
                              9 ;; Data array definition
   0000                      10 _screenhistory_z::
   0000 60 55 D5 FF 13 11    11    .db  0x60, 0x55, 0xd5, 0xff, 0x13, 0x11, 0x9b, 0x25, 0xb2, 0x94, 0x38, 0xc1, 0x13, 0x71, 0x0f, 0x3f
        9B 25 B2 94 38 C1
        13 71 0F 3F
   0010 CD F3 8D 05 35 69    12    .db  0xcd, 0xf3, 0x8d, 0x05, 0x35, 0x69, 0x4c, 0x4f, 0x5d, 0xd3, 0x62, 0x57, 0xa6, 0x02, 0x08, 0x3b
        4C 4F 5D D3 62 57
        A6 02 08 3B
   0020 DD 13 03 FF 7D 74    13    .db  0xdd, 0x13, 0x03, 0xff, 0x7d, 0x74, 0x4d, 0xff, 0x7d, 0x4f, 0xc1, 0x16, 0xd1, 0xd5, 0xff, 0x4f
        4D FF 7D 4F C1 16
        D1 D5 FF 4F
   0030 D7 5C D5 4F 4C 20    14    .db  0xd7, 0x5c, 0xd5, 0x4f, 0x4c, 0x20, 0x1c, 0x18, 0x4c, 0x4f, 0x17, 0x0b, 0x4c, 0xc0, 0x7b, 0xb1
        1C 18 4C 4F 17 0B
        4C C0 7B B1
   0040 DF 17 86 7B 3C 71    15    .db  0xdf, 0x17, 0x86, 0x7b, 0x3c, 0x71, 0x23, 0xff, 0xf7, 0x14, 0x07, 0x1c, 0x7c, 0x02, 0xc1, 0xd5
        23 FF F7 14 07 1C
        7C 02 C1 D5
   0050 FF 57 55 5D E7 ED    16    .db  0xff, 0x57, 0x55, 0x5d, 0xe7, 0xed, 0x1c, 0x75, 0x08, 0x35, 0x33, 0xdd, 0xd7, 0x5e, 0xba, 0x3b
        1C 75 08 35 33 DD
        D7 5E BA 3B
   0060 8F EC C4 D9 1E 0D    17    .db  0x8f, 0xec, 0xc4, 0xd9, 0x1e, 0x0d, 0x34, 0xce, 0xed, 0x10, 0x08, 0xd7, 0xff, 0xaa, 0x47, 0x00
        34 CE ED 10 08 D7
        FF AA 47 00
   0070 29 8A 0B FF FB 0A    18    .db  0x29, 0x8a, 0x0b, 0xff, 0xfb, 0x0a, 0x09, 0xee, 0xff, 0xa1, 0x30, 0xfd, 0x7e, 0xff, 0xf5, 0x10
        09 EE FF A1 30 FD
        7E FF F5 10
   0080 0B 75 D3 EC BF ED    19    .db  0x0b, 0x75, 0xd3, 0xec, 0xbf, 0xed, 0xb1, 0xec, 0x57, 0xff, 0x5f, 0x04, 0x6a, 0x0e, 0xdd, 0xd5
        B1 EC 57 FF 5F 04
        6A 0E DD D5
   0090 C9 D7 C9 5F D6 7F    20    .db  0xc9, 0xd7, 0xc9, 0x5f, 0xd6, 0x7f, 0x38, 0x5d, 0xb0, 0x7f, 0xd7, 0x7b, 0x10, 0x14, 0x0e, 0x02
        38 5D B0 7F D7 7B
        10 14 0E 02
   00A0 1D D8 DC A3 E7 BD    21    .db  0x1d, 0xd8, 0xdc, 0xa3, 0xe7, 0xbd, 0xff, 0x9e, 0x0a, 0x3d, 0x3e, 0x48, 0x8a, 0x0c, 0xaa, 0x10
        FF 9E 0A 3D 3E 48
        8A 0C AA 10
   00B0 0D 01 7E F8 D7 F9    22    .db  0x0d, 0x01, 0x7e, 0xf8, 0xd7, 0xf9, 0xc0, 0x00, 0x63, 0xa2, 0x8a, 0x30, 0x4f, 0x69, 0x88, 0x42
        C0 00 63 A2 8A 30
        4F 69 88 42
   00C0 08 0F 0A AE 11 44    23    .db  0x08, 0x0f, 0x0a, 0xae, 0x11, 0x44, 0xee, 0x55, 0x0e, 0x6a, 0x4f, 0x13, 0x58, 0x0a, 0xc7, 0x51
        EE 55 0E 6A 4F 13
        58 0A C7 51
   00D0 9B 1C C6 01 13 F4    24    .db  0x9b, 0x1c, 0xc6, 0x01, 0x13, 0xf4, 0xd1, 0xff, 0x17, 0xea, 0x63, 0xff, 0xf5, 0x12, 0xd5, 0xff
        D1 FF 17 EA 63 FF
        F5 12 D5 FF
   00E0 3D 7E C4 22 71 D4    25    .db  0x3d, 0x7e, 0xc4, 0x22, 0x71, 0xd4, 0xff, 0x17, 0xff, 0xff, 0x79, 0x0a, 0x1f, 0x0e, 0x00, 0x90
        FF 17 FF FF 79 0A
        1F 0E 00 90
ASxxxx Assembler V02.00 + NoICE + SDCC mods  (Zilog Z80 / Hitachi HD64180), page 2.
Hexadecimal [16-Bits]



   00F0 F2 1C D0 08 19 DD    26    .db  0xf2, 0x1c, 0xd0, 0x08, 0x19, 0xdd, 0xb0, 0xc4, 0x26, 0xd7, 0x10, 0xc1, 0x46, 0xaf, 0x1f, 0xdf
        B0 C4 26 D7 10 C1
        46 AF 1F DF
   0100 ED 0A D5 1C 75 FF    27    .db  0xed, 0x0a, 0xd5, 0x1c, 0x75, 0xff, 0x44, 0x91, 0xbc, 0x7c, 0xba, 0xff, 0x1e, 0xa0, 0xa7, 0xee
        44 91 BC 7C BA FF
        1E A0 A7 EE
   0110 FF 1E 82 05 B4 77    28    .db  0xff, 0x1e, 0x82, 0x05, 0xb4, 0x77, 0x00, 0x18, 0xa2, 0x0e, 0xb8, 0xff, 0x1e, 0x03, 0x9a, 0x08
        00 18 A2 0E B8 FF
        1E 03 9A 08
   0120 EB EB 0E E9 FF BE    29    .db  0xeb, 0xeb, 0x0e, 0xe9, 0xff, 0xbe, 0x0d, 0x86, 0x14, 0x08, 0x63, 0x02, 0xae, 0xe0, 0xa7, 0x00
        0D 86 14 08 63 02
        AE E0 A7 00
   0130 89 43 80 01 9A FF    30    .db  0x89, 0x43, 0x80, 0x01, 0x9a, 0xff, 0xbe, 0x00, 0x62, 0xa0, 0x17, 0xba, 0x19, 0x86, 0x08, 0xae
        BE 00 62 A0 17 BA
        19 86 08 AE
   0140 FF 8F A9 90 14 8B    31    .db  0xff, 0x8f, 0xa9, 0x90, 0x14, 0x8b, 0x82, 0x3c, 0x00, 0xd4, 0xa0, 0x01, 0xba, 0x00, 0xff, 0x7c
        82 3C 00 D4 A0 01
        BA 00 FF 7C
   0150 C5 C9 5E FD 48 05    32    .db  0xc5, 0xc9, 0x5e, 0xfd, 0x48, 0x05, 0xb2, 0xe4, 0x10, 0x00, 0x05, 0xaa, 0x0f, 0xae, 0xd3, 0x7e
        B2 E4 10 00 05 AA
        0F AE D3 7E
   0160 A2 10 0E 03 3A 02    33    .db  0xa2, 0x10, 0x0e, 0x03, 0x3a, 0x02, 0x0f, 0xc3, 0x07, 0x09, 0x00, 0xf3, 0x02, 0xff, 0xf7, 0xa7
        0F C3 07 09 00 F3
        02 FF F7 A7
   0170 BD FF 3D 51 FF 41    34    .db  0xbd, 0xff, 0x3d, 0x51, 0xff, 0x41, 0xff, 0xbe, 0x05, 0xb8, 0xff, 0x8f, 0x62, 0x9d, 0xac, 0xc0
        FF BE 05 B8 FF 8F
        62 9D AC C0
   0180 B2 F9 C2 24 1A F0    35    .db  0xb2, 0xf9, 0xc2, 0x24, 0x1a, 0xf0, 0xc2, 0x28, 0x94, 0x66, 0x6b, 0x16, 0xba, 0xaf, 0x1e, 0xfa
        C2 28 94 66 6B 16
        BA AF 1E FA
   0190 9A 00 E3 AC 9E 2E    36    .db  0x9a, 0x00, 0xe3, 0xac, 0x9e, 0x2e, 0x38, 0x13, 0x3a, 0xff, 0x7a, 0x82, 0xed, 0xbe, 0xdb, 0xf6
        38 13 3A FF 7A 82
        ED BE DB F6
   01A0 EA FF 03 2A A1 A4    37    .db  0xea, 0xff, 0x03, 0x2a, 0xa1, 0xa4, 0xa5, 0xb0, 0x1c, 0x26, 0xe5, 0xfa, 0xea, 0xff, 0xab, 0x80
        A5 B0 1C 26 E5 FA
        EA FF AB 80
   01B0 B0 FF 07 A2 04 DB    38    .db  0xb0, 0xff, 0x07, 0xa2, 0x04, 0xdb, 0xf8, 0x0d, 0xe3, 0x0a, 0xa6, 0x1a, 0x13, 0xe1, 0x91, 0x6e
        F8 0D E3 0A A6 1A
        13 E1 91 6E
   01C0 CA BD 6B B4 87 FF    39    .db  0xca, 0xbd, 0x6b, 0xb4, 0x87, 0xff, 0x3e, 0x0a, 0x0a, 0x1a, 0xff, 0xfa, 0x0a, 0x00, 0x8e, 0xa2
        3E 0A 0A 1A FF FA
        0A 00 8E A2
   01D0 09 13 0B FB E4 3D    40    .db  0x09, 0x13, 0x0b, 0xfb, 0xe4, 0x3d, 0xff, 0xfa, 0x22, 0x17, 0x60, 0x19, 0xba, 0xff, 0x7a, 0x8a
        FF FA 22 17 60 19
        BA FF 7A 8A
   01E0 03 E0 FF 16 FD FF    41    .db  0x03, 0xe0, 0xff, 0x16, 0xfd, 0xff, 0x7a, 0x08, 0x62, 0x04, 0x66, 0xc8, 0x87, 0xff, 0x9e, 0x0a
        7A 08 62 04 66 C8
        87 FF 9E 0A
   01F0 20 88 AB 10 00 17    42    .db  0x20, 0x88, 0xab, 0x10, 0x00, 0x17, 0x82, 0xf8, 0xcf, 0xab, 0xaf, 0xfa, 0xaa, 0x16, 0xba, 0x09
        82 F8 CF AB AF FA
        AA 16 BA 09
   0200 A1 FF AF 20 00 4A    43    .db  0xa1, 0xff, 0xaf, 0x20, 0x00, 0x4a, 0x41, 0x50, 0xf6, 0x52, 0xff, 0x7d, 0x0a, 0xc4, 0xd4, 0xff
        41 50 F6 52 FF 7D
        0A C4 D4 FF
   0210 17 11 57 83 58 62    44    .db  0x17, 0x11, 0x57, 0x83, 0x58, 0x62, 0x13, 0x9f, 0x42, 0x0f, 0xd0, 0x01, 0x5c, 0xff, 0x1f, 0x09
ASxxxx Assembler V02.00 + NoICE + SDCC mods  (Zilog Z80 / Hitachi HD64180), page 3.
Hexadecimal [16-Bits]



        13 9F 42 0F D0 01
        5C FF 1F 09
   0220 70 FF 1F 55 08 97    45    .db  0x70, 0xff, 0x1f, 0x55, 0x08, 0x97, 0xb9, 0x05, 0x77, 0x13, 0xb3, 0xd0, 0xaa, 0x53, 0x1c, 0x89
        B9 05 77 13 B3 D0
        AA 53 1C 89
   0230 BB BC FF 9E CA A5    46    .db  0xbb, 0xbc, 0xff, 0x9e, 0xca, 0xa5, 0xdb, 0xc5, 0xeb, 0xff, 0x01, 0xa2, 0x00, 0xab, 0xaa, 0xff
        DB C5 EB FF 01 A2
        00 AB AA FF
   0240 07 00 CA FF 07 20    47    .db  0x07, 0x00, 0xca, 0xff, 0x07, 0x20, 0x70, 0x4f, 0x0d, 0xc1, 0xc8, 0x1e, 0x05, 0xb7, 0xcd, 0x57
        70 4F 0D C1 C8 1E
        05 B7 CD 57
   0250 FF 5F 55 F0 05 7A    48    .db  0xff, 0x5f, 0x55, 0xf0, 0x05, 0x7a, 0xec, 0xed, 0x44, 0xa7, 0x48, 0x54, 0x03, 0x0e, 0x19, 0xdf
        EC ED 44 A7 48 54
        03 0E 19 DF
   0260 08 C0 11 A2 0A C6    49    .db  0x08, 0xc0, 0x11, 0xa2, 0x0a, 0xc6, 0xe5, 0x3d, 0x3c, 0x7e, 0xd0, 0x7a, 0xee, 0xff, 0x89, 0x28
        E5 3D 3C 7E D0 7A
        EE FF 89 28
   0270 2A FF 5F 44 00 2A    50    .db  0x2a, 0xff, 0x5f, 0x44, 0x00, 0x2a, 0xc4, 0xff, 0x07, 0x11, 0x0e, 0x57, 0x10, 0xa5, 0x41, 0x00
        C4 FF 07 11 0E 57
        10 A5 41 00
   0280 00 18 7A 99 FF FB    51    .db  0x00, 0x18, 0x7a, 0x99, 0xff, 0xfb, 0x0a, 0x20, 0xa8, 0xdc, 0xf7, 0xed, 0xd2, 0xff, 0xd7, 0xb2
        0A 20 A8 DC F7 ED
        D2 FF D7 B2
   0290 FF F6 01 10 09 FF    52    .db  0xff, 0xf6, 0x01, 0x10, 0x09, 0xff, 0xf7, 0xaa, 0x51, 0xff, 0xbe, 0xa2, 0xc3, 0xaf, 0xff, 0xaf
        F7 AA 51 FF BE A2
        C3 AF FF AF
   02A0 8A 00 27 DF FA A9    53    .db  0x8a, 0x00, 0x27, 0xdf, 0xfa, 0xa9, 0x90, 0xaf, 0xff, 0x3e, 0x0b, 0x9a, 0x10, 0xdb, 0xb9, 0x79
        90 AF FF 3E 0B 9A
        10 DB B9 79
   02B0 7B DB AF FF BE A0    54    .db  0x7b, 0xdb, 0xaf, 0xff, 0xbe, 0xa0, 0xc8, 0xb9, 0x01, 0xa8, 0xff, 0xaf, 0x00, 0xe0, 0xff, 0xbe
        C8 B9 01 A8 FF AF
        00 E0 FF BE
   02C0 88 1E AE 4F 1E 6B    55    .db  0x88, 0x1e, 0xae, 0x4f, 0x1e, 0x6b, 0x15, 0x60, 0x1b, 0x44, 0xee, 0x3b, 0xae, 0x13, 0x55, 0x54
        15 60 1B 44 EE 3B
        AE 13 55 54
   02D0 F9 08 4F 1B 08 E2    56    .db  0xf9, 0x08, 0x4f, 0x1b, 0x08, 0xe2, 0x0a, 0xae, 0xff, 0x1e, 0x52, 0x9a, 0x15, 0x1c, 0xbb, 0x0a
        0A AE FF 1E 52 9A
        15 1C BB 0A
   02E0 47 BE FC 3D F8 AD    57    .db  0x47, 0xbe, 0xfc, 0x3d, 0xf8, 0xad, 0xe9, 0xaf, 0x83, 0x4f, 0xab, 0xca, 0xf6, 0x4f, 0x0e, 0x30
        E9 AF 83 4F AB CA
        F6 4F 0E 30
   02F0 36 68 FF 7D 50 C8    58    .db  0x36, 0x68, 0xff, 0x7d, 0x50, 0xc8, 0x7b, 0x05, 0xdd, 0xec, 0x5e, 0xff, 0x3d, 0x40, 0x10, 0xa2
        7B 05 DD EC 5E FF
        3D 40 10 A2
   0300 56 FF 5F 00 4D 44    59    .db  0x56, 0xff, 0x5f, 0x00, 0x4d, 0x44, 0xff, 0x7d, 0xd5, 0xc4, 0x5e, 0xb8, 0xec, 0x91, 0x85, 0x51
        FF 7D D5 C4 5E B8
        EC 91 85 51
   0310 34 40 3F 3F 38 00    60    .db  0x34, 0x40, 0x3f, 0x3f, 0x38, 0x00, 0x08, 0x44, 0x0f, 0xdc, 0xe8, 0x4c, 0x96, 0x58, 0xd1, 0x5c
        08 44 0F DC E8 4C
        96 58 D1 5C
   0320 93 48 FF 1F 10 00    61    .db  0x93, 0x48, 0xff, 0x1f, 0x10, 0x00, 0xe4, 0xff, 0xab, 0x0a, 0x1b, 0xa6, 0xad, 0xac, 0xff, 0x2f
        E4 FF AB 0A 1B A6
        AD AC FF 2F
   0330 27 0E 6E 04 B8 F5    62    .db  0x27, 0x0e, 0x6e, 0x04, 0xb8, 0xf5, 0xb1, 0xff, 0x1e, 0x0c, 0xba, 0xc8, 0x24, 0x6d, 0x6e, 0xe6
        B1 FF 1E 0C BA C8
ASxxxx Assembler V02.00 + NoICE + SDCC mods  (Zilog Z80 / Hitachi HD64180), page 4.
Hexadecimal [16-Bits]



        24 6D 6E E6
   0340 68 FF FB 0A 11 BA    63    .db  0x68, 0xff, 0xfb, 0x0a, 0x11, 0xba, 0xff, 0xaf, 0xda, 0xdb, 0x89, 0xb9, 0x31, 0x80, 0xa5, 0xc2
        FF AF DA DB 89 B9
        31 80 A5 C2
   0350 07 EA 1C 29 FF 7A    64    .db  0x07, 0xea, 0x1c, 0x29, 0xff, 0x7a, 0x88, 0x57, 0xa6, 0x55, 0x19, 0x16, 0xe2, 0x3b, 0x55, 0x4d
        88 57 A6 55 19 16
        E2 3B 55 4D
   0360 DA 7D B4 ED B9 E5    65    .db  0xda, 0x7d, 0xb4, 0xed, 0xb9, 0xe5, 0x04, 0x07, 0xdc, 0x88, 0x4d, 0x05, 0x70, 0x8b, 0xdd, 0x95
        04 07 DC 88 4D 05
        70 8B DD 95
   0370 F8 57 FF 5F 41 1E    66    .db  0xf8, 0x57, 0xff, 0x5f, 0x41, 0x1e, 0xd7, 0xff, 0x17, 0x6e, 0x1e, 0xd3, 0x4f, 0x17, 0x06, 0x4f
        D7 FF 17 6E 1E D3
        4F 17 06 4F
   0380 0F 03 DD FF 47 3B    67    .db  0x0f, 0x03, 0xdd, 0xff, 0x47, 0x3b, 0x0c, 0x13, 0x4c, 0x5b, 0x4a, 0xd7, 0x15, 0x5d, 0xf9, 0x4f
        0C 13 4C 5B 4A D7
        15 5D F9 4F
   0390 13 39 13 7F 00 33    68    .db  0x13, 0x39, 0x13, 0x7f, 0x00, 0x33, 0xcd, 0x08, 0x00, 0x3d, 0x39, 0x7e, 0x33, 0xff, 0x3d, 0x10
        CD 08 00 3D 39 7E
        33 FF 3D 10
   03A0 05 47 FF 5F 18 D5    69    .db  0x05, 0x47, 0xff, 0x5f, 0x18, 0xd5, 0x0b, 0xdd, 0x84, 0x05, 0xc7, 0xb1, 0xec, 0x03, 0x00, 0x13
        0B DD 84 05 C7 B1
        EC 03 00 13
   03B0 54 FF 5F 01 75 FF    70    .db  0x54, 0xff, 0x5f, 0x01, 0x75, 0xff, 0x7d, 0x55, 0x08, 0x03, 0xd3, 0x3f, 0x70, 0xdc, 0x7b, 0xa3
        7D 55 08 03 D3 3F
        70 DC 7B A3
   03C0 F5 87 ED 01 12 DD    71    .db  0xf5, 0x87, 0xed, 0x01, 0x12, 0xdd, 0xff, 0xd7, 0xd6, 0x5e, 0xc4, 0x7b, 0x83, 0xed, 0x4f, 0x0d
        FF D7 D6 5E C4 7B
        83 ED 4F 0D
   03D0 05 05 00 94 0F 0A    72    .db  0x05, 0x05, 0x00, 0x94, 0x0f, 0x0a, 0xff, 0x78, 0x22, 0x05, 0xe2, 0xa0, 0xb0, 0x92, 0xb0, 0x03
        FF 78 22 05 E2 A0
        B0 92 B0 03
   03E0 FF 7B 2A 01 E0 09    73    .db  0xff, 0x7b, 0x2a, 0x01, 0xe0, 0x09, 0x0a, 0x63, 0x10, 0xff, 0xf2, 0x30, 0x02, 0xd1, 0xd5, 0xbd
        0A 63 10 FF F2 30
        02 D1 D5 BD
   03F0 FF BE 88 22 81 A4    74    .db  0xff, 0xbe, 0x88, 0x22, 0x81, 0xa4, 0xd6, 0x84, 0x8a, 0x39, 0xab, 0xff, 0x2f, 0x02, 0xb8, 0xff
        D6 84 8A 39 AB FF
        2F 02 B8 FF
   0400 2F 13 8E 01 EB FF    75    .db  0x2f, 0x13, 0x8e, 0x01, 0xeb, 0xff, 0xa3, 0xff, 0x76, 0x58, 0xe8, 0xf4, 0xf6, 0x1c, 0x9a, 0x08
        A3 FF 76 58 E8 F4
        F6 1C 9A 08
   0410 B8 7D 61 CE 8F 6F    76    .db  0xb8, 0x7d, 0x61, 0xce, 0x8f, 0x6f, 0xa9, 0xaf, 0x27, 0x0a, 0x9a, 0x07, 0x1c, 0xbe, 0x02, 0x60
        A9 AF 27 0A 9A 07
        1C BE 02 60
   0420 62 D7 27 E4 72 49    77    .db  0x62, 0xd7, 0x27, 0xe4, 0x72, 0x49, 0x98, 0x0a, 0x62, 0x44, 0x62, 0xea, 0x9e, 0xab, 0x0a, 0x3e
        98 0A 62 44 62 EA
        9E AB 0A 3E
   0430 AF 06 35 A7 50 A1    78    .db  0xaf, 0x06, 0x35, 0xa7, 0x50, 0xa1, 0x9d, 0xf6, 0xea, 0xaf, 0xa1, 0xff, 0x1e, 0x05, 0x38, 0x08
        9D F6 EA AF A1 FF
        1E 05 38 08
   0440 AE 55 E4 78 FF F4    79    .db  0xae, 0x55, 0xe4, 0x78, 0xff, 0xf4, 0x05, 0x08, 0xc5, 0x18, 0x71, 0x29, 0xd7, 0xaf, 0x07, 0xa1
        05 08 C5 18 71 29
        D7 AF 07 A1
   0450 3D 22 0D 08 47 77    80    .db  0x3d, 0x22, 0x0d, 0x08, 0x47, 0x77, 0xc2, 0x7f, 0x30, 0x45, 0xdc, 0x39, 0xcd, 0xae, 0x5f, 0x3b
        C2 7F 30 45 DC 39
        CD AE 5F 3B
ASxxxx Assembler V02.00 + NoICE + SDCC mods  (Zilog Z80 / Hitachi HD64180), page 5.
Hexadecimal [16-Bits]



   0460 57 15 12 DD F0 7B    81    .db  0x57, 0x15, 0x12, 0xdd, 0xf0, 0x7b, 0x0e, 0x5c, 0xff, 0x4f, 0x83, 0xb4, 0x41, 0x1c, 0x75, 0xa8
        0E 5C FF 4F 83 B4
        41 1C 75 A8
   0470 84 08 C5 3C 34 D4    82    .db  0x84, 0x08, 0xc5, 0x3c, 0x34, 0xd4, 0xff, 0x7a, 0x14, 0x2a, 0xff, 0x5f, 0x28, 0x41, 0x19, 0xa1
        FF 7A 14 2A FF 5F
        28 41 19 A1
   0480 08 0B 45 6F AB 42    83    .db  0x08, 0x0b, 0x45, 0x6f, 0xab, 0x42, 0xe8, 0xff, 0x8b, 0xcf, 0x1f, 0x8a, 0x61, 0xa1, 0x4f, 0xab
        E8 FF 8B CF 1F 8A
        61 A1 4F AB
   0490 FF 3E A0 04 E9 AF    84    .db  0xff, 0x3e, 0xa0, 0x04, 0xe9, 0xaf, 0x83, 0x8c, 0x3d, 0xca, 0xeb, 0xeb, 0xff, 0xa9, 0x02, 0xba
        83 8C 3D CA EB EB
        FF A9 02 BA
   04A0 FF 8F AA 06 8E 94    85    .db  0xff, 0x8f, 0xaa, 0x06, 0x8e, 0x94, 0x09, 0x9e, 0x09, 0x90, 0x63, 0xe3, 0x27, 0x02, 0x03, 0x02
        09 9E 09 90 63 E3
        27 02 03 02
   04B0 6E 30 09 01 E8 D7    86    .db  0x6e, 0x30, 0x09, 0x01, 0xe8, 0xd7, 0xed, 0xec, 0x6d, 0xb7, 0xbb, 0xd2, 0x00, 0x77, 0x04, 0x41
        ED EC 6D B7 BB D2
        00 77 04 41
   04C0 A6 09 1C 71 89 8D    87    .db  0xa6, 0x09, 0x1c, 0x71, 0x89, 0x8d, 0x05, 0x35, 0x04, 0x74, 0xdd, 0xc4, 0xf8, 0x58, 0x2f, 0x4c
        05 35 04 74 DD C4
        F8 58 2F 4C
   04D0 CC 16 D4 44 35 22    88    .db  0xcc, 0x16, 0xd4, 0x44, 0x35, 0x22, 0x5c, 0x21, 0xfe, 0x8f, 0x0e, 0x75, 0x07, 0x7f, 0x7d, 0x49
        5C 21 FE 8F 0E 75
        07 7F 7D 49
   04E0 3D 37 07 68 37 F5    89    .db  0x3d, 0x37, 0x07, 0x68, 0x37, 0xf5, 0x85, 0x44, 0x02, 0x13, 0x22, 0xdf, 0x08, 0xc1, 0x36, 0x7f
        85 44 02 13 22 DF
        08 C1 36 7F
   04F0 F4 57 DD C4 18 02    90    .db  0xf4, 0x57, 0xdd, 0xc4, 0x18, 0x02, 0x4f, 0x7d, 0x00, 0xd0, 0x4f, 0x17, 0x1c, 0x5c, 0x3b, 0x57
        4F 7D 00 D0 4F 17
        1C 5C 3B 57
   0500 29 12 D7 55 0C 0A    91    .db  0x29, 0x12, 0xd7, 0x55, 0x0c, 0x0a, 0x74, 0x1c, 0x0c, 0x08, 0x71, 0x3b, 0x08, 0xd3, 0x88, 0x85
        74 1C 0C 08 71 3B
        08 D3 88 85
   0510 00 2F CD 6F 4F 7D    92    .db  0x00, 0x2f, 0xcd, 0x6f, 0x4f, 0x7d, 0x2d, 0xc5, 0x07, 0x0d, 0xdd, 0x0a, 0x75, 0x41, 0x05, 0xdd
        2D C5 07 0D DD 0A
        75 41 05 DD
   0520 0B 35 55 02 DC 1E    93    .db  0x0b, 0x35, 0x55, 0x02, 0xdc, 0x1e, 0xaa, 0x50, 0x17, 0x55, 0x2d, 0xaa, 0x55, 0x0f, 0x15, 0x02
        AA 50 17 55 2D AA
        55 0F 15 02
   0530 0A 66 02 E2 0E 05    94    .db  0x0a, 0x66, 0x02, 0xe2, 0x0e, 0x05, 0xeb, 0x08, 0xaa, 0x02, 0x05, 0xeb, 0x00, 0x01, 0xff, 0x7c
        EB 08 AA 02 05 EB
        00 01 FF 7C
   0540 A8 B0 80 13 26 26    95    .db  0xa8, 0xb0, 0x80, 0x13, 0x26, 0x26, 0x08, 0xee, 0x13, 0xba, 0x1e, 0x1c, 0xe1, 0x0a, 0x94, 0x16
        08 EE 13 BA 1E 1C
        E1 0A 94 16
   0550 9B 92 C2 0A 89 02    96    .db  0x9b, 0x92, 0xc2, 0x0a, 0x89, 0x02, 0xbb, 0x89, 0x10, 0xa0, 0x02, 0x12, 0xbe, 0x0e, 0x03, 0x27
        BB 89 10 A0 02 12
        BE 0E 03 27
   0560 E4 08 E5 30 07 30    97    .db  0xe4, 0x08, 0xe5, 0x30, 0x07, 0x30, 0x10, 0x1a, 0xda, 0x10, 0x20, 0x1a, 0xd4, 0x49, 0x54, 0x08
        10 1A DA 10 20 1A
        D4 49 54 08
   0570 22 D7 05 0D 4F 37    98    .db  0x22, 0xd7, 0x05, 0x0d, 0x4f, 0x37, 0xd3, 0x00, 0x41, 0x08, 0x4f, 0x1b, 0x88, 0x6a, 0x0e, 0xbb
        D3 00 41 08 4F 1B
        88 6A 0E BB
   0580 58 89 08 03 E3 07    99    .db  0x58, 0x89, 0x08, 0x03, 0xe3, 0x07, 0x0e, 0x4f, 0x67, 0x3e, 0x0e, 0x89, 0x42, 0x4f, 0x26, 0x49
ASxxxx Assembler V02.00 + NoICE + SDCC mods  (Zilog Z80 / Hitachi HD64180), page 6.
Hexadecimal [16-Bits]



        0E 4F 67 3E 0E 89
        42 4F 26 49
   0590 E8 08 BA 43 46 1B   100    .db  0xe8, 0x08, 0xba, 0x43, 0x46, 0x1b, 0x00, 0xa6, 0x12, 0xe2, 0x0a, 0x02, 0x3e, 0x14, 0x08, 0xe6
        00 A6 12 E2 0A 02
        3E 14 08 E6
   05A0 02 01 E6 00 3C 03   101    .db  0x02, 0x01, 0xe6, 0x00, 0x3c, 0x03, 0x3c, 0x3c, 0x2c, 0x28, 0x14, 0x28, 0x3f, 0x58, 0x34, 0x54
        3C 3C 2C 28 14 28
        3F 58 34 54
   05B0 3F 3F 38 00 58 51   102    .db  0x3f, 0x3f, 0x38, 0x00, 0x58, 0x51, 0x0c, 0x4d, 0x04, 0x30, 0x30, 0x20, 0x20, 0x03, 0x87, 0x10
        0C 4D 04 30 30 20
        20 03 87 10
   05C0 00 D0 20 82 00      103    .db  0x00, 0xd0, 0x20, 0x82, 0x00
                            104 ;; Address of the latest byte of the compressed array (for unpacking purposes)
                     05C4   105 _screenhistory_z_end == . - 1
                            106 
